/*--------------------------------*- C++ -*----------------------------------*\
  =========                 |
  \\      /  F ield         | OpenFOAM: The Open Source CFD Toolbox
   \\    /   O peration     | Website:  https://openfoam.org
    \\  /    A nd           | Version:  8
     \\/     M anipulation  |
\*---------------------------------------------------------------------------*/
FoamFile
{
    version     2.0;
    format      ascii;
    class       dictionary;
    object      topoSetDict;
}

// * * * * * * * * * * * * * * * * * * * * * * * * * * * * * * * * * * * * * //

actions
(
    {
        name    ignitionCellSet;
        type    cellSet;
        action  new;
        source  boxToCell;
        sourceInfo
        {
            box (0.004 0.012 -0.003)(0.019 0.02 0.003);
            //box (0 0.039 -0.003)(0.0017 0.045 0.003);
        }
    }

    {
        name    ignition;
        type    cellZoneSet;
        action  new;
        source  setToCellZone;
        sourceInfo
        {
            set    ignitionCellSet;
        }
    }
);

// ************************************************************************* //
