/*--------------------------------*- C++ -*----------------------------------*\
  =========                 |
  \\      /  F ield         | OpenFOAM: The Open Source CFD Toolbox
   \\    /   O peration     | Website:  https://openfoam.org
    \\  /    A nd           | Version:  8
     \\/     M anipulation  |
\*---------------------------------------------------------------------------*/
FoamFile
{
    version     2.0;
    format      ascii;
    class       dictionary;
    location    "constant";
    object      fvOptions;
}
// * * * * * * * * * * * * * * * * * * * * * * * * * * * * * * * * * * * * * //

energySource1
{
    type            fixedTemperatureConstraint;
    active	    true;
    timeStart	    0;
    duration	    0.01;
    selectionMode   cellZone;
    cellZone	    ignition;
    
    mode	    uniform;
    temperature    constant 1800;
   
}

limitT
{
  type        limitTemperature;
  active      yes;
  
  selectionMode   all;
  min             300;
  max             5000;
}

// ************************************************************************* //
