/*--------------------------------*- C++ -*----------------------------------*\
| =========                 |                                                 |
| \\      /  F ield         | OpenFOAM: The Open Source CFD Toolbox           |
|  \\    /   O peration     | Version:  v2006                                 |
|   \\  /    A nd           | Website:  www.openfoam.com                      |
|    \\/     M anipulation  |                                                 |
\*---------------------------------------------------------------------------*/
FoamFile
{
    version     2.0;
    format      binary;
    class       volScalarField;
    arch        "LSB;label=32;scalar=64";
    location    "0";
    object      p;
}
// * * * * * * * * * * * * * * * * * * * * * * * * * * * * * * * * * * * * * //

dimensions      [1 -1 -2 0 0 0 0];


internalField   uniform 5000000;

boundaryField
{
    front
    {
        type            wedge;
    }
    back
    {
        type            wedge;
    }
    walls
    {
        type            zeroGradient;
    }
    fuelInlet
    {
        type            zeroGradient;
    }
    oxidizerInlet
    {
        type            zeroGradient;
    }
    outlet
    {
	type		freestream;
	freestreamValue 101325;      
	//type            zeroGradient;
        //type            totalPressure;
	//psi		thermo:psi;
	//gamma		1.4;
        //p0              uniform 5000000;
        //value           uniform 5000000;
    }
    axis
    {
        type            empty;
    }
}


// ************************************************************************* //
