/*--------------------------------*- C++ -*----------------------------------*\
| =========                 |                                                 |
| \\      /  F ield         | OpenFOAM: The Open Source CFD Toolbox           |
|  \\    /   O peration     | Version:  v2006                                 |
|   \\  /    A nd           | Website:  www.openfoam.com                      |
|    \\/     M anipulation  |                                                 |
\*---------------------------------------------------------------------------*/
FoamFile
{
    version     2.0;
    format      binary;
    class       volScalarField;
    arch        "LSB;label=32;scalar=64";
    location    "0";
    object      T;
}
// * * * * * * * * * * * * * * * * * * * * * * * * * * * * * * * * * * * * * //

dimensions      [0 0 0 1 0 0 0];


internalField   uniform 500;

boundaryField
{
    front
    {
        type            wedge;
    }
    back
    {
        type            wedge;
    }
    walls
    {
        type            zeroGradient;
    }
    fuelInlet
    {
        //
        type            fixedValue;
        value           uniform 500;
        //
        //type            zeroGradient;
    }
    oxidizerInlet
    {
        /*
        type            fixedValue;
        value           uniform 320;
        */
        type            zeroGradient;
    }
    outlet
    {
        type            zeroGradient;
        /*
        type            totalTemperature;
        gamma           1.192;
        T0              uniform 500;
        value           uniform 500;
        */
    }
    axis
    {
        type            empty;
    }
}


// ************************************************************************* //
